4
-1.1449995281046904e+02 frame 0   xyz file generated by TeraChem
     C    -0.0122241000    0.0001804100   -0.0016211600
     O     1.2016482000   -0.0177341700    0.1593624100
     H    -0.5971644000    0.9327281700    0.0424401000
     H    -0.5922597000   -0.9151744000   -0.2001813500
4
-1.1450036543946260e+02 frame 1   xyz file generated by TeraChem
     C    -0.0096775953    0.0001438102   -0.0012800311
     O     1.1939307252   -0.0176194969    0.1583379582
     H    -0.5945824946    0.9344390724    0.0430116640
     H    -0.5896706353   -0.9169633757   -0.2000695911
4
-1.1450048570976955e+02 frame 2   xyz file generated by TeraChem
     C    -0.0063497781    0.0000913035   -0.0008309489
     O     1.1892537341   -0.0175410331    0.1577162771
     H    -0.5939062646    0.9368372737    0.0434156230
     H    -0.5889976914   -0.9193875341   -0.2003009512
4
-1.1450049778663166e+02 frame 3   xyz file generated by TeraChem
     C    -0.0053604105    0.0000722186   -0.0006951159
     O     1.1901764583   -0.0175459016    0.1578380965
     H    -0.5948574901    0.9376629836    0.0433945757
     H    -0.5899585577   -0.9201892907   -0.2005375562
4
-1.1450050353240034e+02 frame 4   xyz file generated by TeraChem
     C    -0.0042397631    0.0000448064   -0.0005336944
     O     1.1916625008   -0.0175499162    0.1580328622
     H    -0.5961491970    0.9384741620    0.0433227732
     H    -0.5912735408   -0.9209690422   -0.2008219410
4
-1.1450050366899509e+02 frame 5   xyz file generated by TeraChem
     C    -0.0042375641    0.0000424348   -0.0005285167
     O     1.1916582269   -0.0175471911    0.1580309310
     H    -0.5961464280    0.9385056812    0.0433255558
     H    -0.5912742348   -0.9210009149   -0.2008279701
4
-1.1450050366899509e+02 frame 6   xyz file generated by TeraChem
     C    -0.0042375641    0.0000424348   -0.0005285167
     O     1.1916582269   -0.0175471911    0.1580309310
     H    -0.5961464280    0.9385056812    0.0433255558
     H    -0.5912742348   -0.9210009149   -0.2008279701
