8
-1.6707769023972111e+02 frame 0   xyz file generated by TeraChem
     N    -0.4465194700    0.6830091000   -0.0932618200
     H    -0.4573826000    1.1483344900    0.8104886800
     H     0.6773599000    0.3820642100   -0.2197000300
     N    -1.2239012400   -0.4695695900   -0.0069891200
     H    -1.8039357000   -0.5112019200    0.8166872800
     H    -1.7837217800   -0.5685801600   -0.8405154300
     N     1.9039017200   -0.1568337100   -0.0766247800
     H     1.7333130800   -0.8468572000    0.6711695400
8
-1.6707798017221418e+02 frame 1   xyz file generated by TeraChem
     N    -0.4585210679    0.6910971540   -0.1087741194
     H    -0.4522045947    1.1536281743    0.7985191062
     H     0.6604845734    0.4064253459   -0.2716860707
     N    -1.2173902928   -0.4759964300   -0.0051436224
     H    -1.7918675161   -0.5109804704    0.8251145147
     H    -1.7914773257   -0.5740515614   -0.8308479666
     N     1.9152263057   -0.1568855438   -0.0689786196
     H     1.7241343797   -0.8511497374    0.6734446961
8
-1.6708512198295006e+02 frame 2   xyz file generated by TeraChem
     N    -0.5374877894    0.7360267590   -0.2042186344
     H    -0.4202581005    1.1915037283    0.7119080641
     H     0.4886064686    0.5489798334   -0.5623352644
     N    -1.1547803830   -0.5313581901    0.0011867310
     H    -1.6933627418   -0.5125501922    0.8710439257
     H    -1.8368770309   -0.6032175042   -0.7553059540
     N     2.0130219100   -0.1626349289   -0.0179015265
     H     1.6435359550   -0.8686108346    0.6798516265
8
-1.6708894643665852e+02 frame 3   xyz file generated by TeraChem
     N    -0.7039379272    0.8813170480   -0.3231524041
     H    -0.4692137038    1.3172956613    0.5561953664
     H     0.1240301056    0.8287614529   -0.7950026019
     N    -1.1389588972   -0.4936542102   -0.0510858663
     H    -1.5834214014   -0.4893228544    0.8631220563
     H    -1.8983817368   -0.7036160374   -0.6880940360
     N     2.0894977857   -0.2148623097    0.0596009434
     H     1.6530141206   -0.9016165166    0.6857321143
8
-1.6709306598393582e+02 frame 4   xyz file generated by TeraChem
     N    -0.6690105486    0.8391813791   -0.2727217707
     H    -0.5022131452    1.2801263758    0.6235979926
     H     0.2735583931    0.7289369113   -0.6804828800
     N    -1.1330352241   -0.5115522242   -0.0216183651
     H    -1.6089197554   -0.5013012511    0.8727343937
     H    -1.8755639467   -0.6623821292   -0.6957114109
     N     2.0867565859   -0.2024185647    0.0312705311
     H     1.6299720865   -0.8860981333    0.6700931869
8
-1.6709356179610683e+02 frame 5   xyz file generated by TeraChem
     N    -0.6723610720    0.8507694933   -0.2874101635
     H    -0.5115233504    1.3064261221    0.6055033340
     H     0.2548145541    0.7649150028   -0.7012931168
     N    -1.1041788459   -0.5123049565   -0.0128482982
     H    -1.5733442848   -0.5065988130    0.8876211492
     H    -1.8553019237   -0.6786398231   -0.6766744453
     N     2.0964719542   -0.2043162784    0.0434502088
     H     1.6113751568   -0.8927934178    0.6597301062
8
-1.6709410994085721e+02 frame 6   xyz file generated by TeraChem
     N    -0.6797363728    0.8801789590   -0.3014010755
     H    -0.5427229167    1.3656991762    0.5791041689
     H     0.2391226309    0.8327909861   -0.7096574383
     N    -1.0456804855   -0.4997734110    0.0065361616
     H    -1.4900354133   -0.5091498275    0.9193207967
     H    -1.7974335753   -0.7319154045   -0.6367608485
     N     2.1056367498   -0.2101770040    0.0653318969
     H     1.5779755141   -0.9058099355    0.6308079006
8
-1.6709506694310315e+02 frame 7   xyz file generated by TeraChem
     N    -0.6845133953    0.9191798576   -0.3282595308
     H    -0.6443407663    1.4799880553    0.5184619433
     H     0.2245377362    0.9713413954   -0.7159966735
     N    -0.8634439057   -0.4786846652    0.0720024699
     H    -1.2568677370   -0.4912419820    1.0090535660
     H    -1.6140408599   -0.8307325675   -0.5174619104
     N     2.1331016553   -0.2252022390    0.1270571097
     H     1.4708742449   -0.9294546418    0.5389730756
8
-1.6709598799716522e+02 frame 8   xyz file generated by TeraChem
     N    -0.6837737454    0.9337044382   -0.3321932472
     H    -0.7539406974    1.5487934701    0.4722778705
     H     0.2373876149    1.0727276751   -0.6868123414
     N    -0.7419785336   -0.4469877430    0.1427631434
     H    -1.0888214285   -0.4631275441    1.0963641002
     H    -1.4589495656   -0.9082647705   -0.4089878214
     N     2.1464526975   -0.2466256638    0.1740980123
     H     1.3994243359   -0.9358637852    0.4509969127
8
-1.6709716237887056e+02 frame 9   xyz file generated by TeraChem
     N    -0.6967200552    0.9147822286   -0.3174207670
     H    -0.8330194694    1.5586367368    0.4528704473
     H     0.2657249629    1.0691117448   -0.6314515316
     N    -0.7607538361   -0.4377807442    0.1864382841
     H    -1.0843279455   -0.4382977562    1.1455623451
     H    -1.4626644589   -0.9217747020   -0.3581908525
     N     2.1559939839   -0.2577864143    0.1779983575
     H     1.4034970679   -0.9260083569    0.4146972121
8
-1.6709763789628784e+02 frame 10   xyz file generated by TeraChem
     N    -0.7159830418    0.8898653505   -0.3214015376
     H    -0.9511737955    1.5786909495    0.3854169868
     H     0.2625060543    1.0833105098   -0.6053099799
     N    -0.7264249509   -0.4240541121    0.2509523365
     H    -0.9961998345   -0.3813326751    1.2266503127
     H    -1.4376409949   -0.9494181525   -0.2401454827
     N     2.2116298658   -0.2866815448    0.2485871356
     H     1.3467203657   -0.9058439845    0.3077160675
8
-1.6709830624923075e+02 frame 11   xyz file generated by TeraChem
     N    -0.7239499233    0.8762028818   -0.3326137305
     H    -0.9537243328    1.5738696190    0.3673613082
     H     0.2532629238    1.0522154878   -0.6164456958
     N    -0.7598393497   -0.4342037630    0.2447563827
     H    -1.0165845995   -0.3829541450    1.2242564102
     H    -1.4999987047   -0.9350844795   -0.2314266093
     N     2.2116444713   -0.2825465634    0.2347797960
     H     1.3693586951   -0.9021429948    0.3282358648
8
-1.6709961858327904e+02 frame 12   xyz file generated by TeraChem
     N    -0.7618375224    0.8233441702   -0.3736758621
     H    -1.0944498202    1.5717470266    0.2236626069
     H     0.2106448340    1.0329371442   -0.6250282240
     N    -0.7834746956   -0.4291937109    0.3014028005
     H    -0.9200765643   -0.3181647837    1.3009179628
     H    -1.5850484119   -0.9377891550   -0.0544558714
     N     2.2491978536   -0.3140638869    0.2787797623
     H     1.3707066023   -0.8694317751    0.2647468608
8
-1.6709962503856966e+02 frame 13   xyz file generated by TeraChem
     N    -0.8156556442    0.7592028487   -0.4207046936
     H    -1.3012638169    1.5316949498    0.0205987879
     H     0.1358614184    1.0448988017   -0.6266611464
     N    -0.7814421192   -0.4012057307    0.3844412459
     H    -0.7342426900   -0.1993971647    1.3796846247
     H    -1.6244339597   -0.9353696861    0.2098708948
     N     2.2981970426   -0.3841984033    0.3731361318
     H     1.3528630547   -0.8087881694    0.1413230594
8
-1.6710007241187807e+02 frame 14   xyz file generated by TeraChem
     N    -0.7901386233    0.7958287715   -0.4157994919
     H    -1.1954170984    1.5616797102    0.1109570842
     H     0.1654555030    1.0403239867   -0.6366041972
     N    -0.7768187914   -0.4152676961    0.3317652012
     H    -0.8002411955   -0.2481036479    1.3338100043
     H    -1.5994050440   -0.9522165581    0.0864585326
     N     2.2615320799   -0.3392132979    0.3033798723
     H     1.3687594795   -0.8508432332    0.2338529877
8
-1.6710020025933616e+02 frame 15   xyz file generated by TeraChem
     N    -0.7839781701    0.7952465362   -0.4083787060
     H    -1.1878517135    1.5597037732    0.1216072676
     H     0.1780247194    1.0414681595   -0.6269829319
     N    -0.7738159745   -0.4158607704    0.3378226940
     H    -0.8177737986   -0.2520626804    1.3390731169
     H    -1.5915701439   -0.9501179400    0.0729876890
     N     2.2677494499   -0.3427681303    0.3077874535
     H     1.3592754282   -0.8466437796    0.2251883753
8
-1.6710025712490426e+02 frame 16   xyz file generated by TeraChem
     N    -0.7880969682    0.7847991808   -0.4156667444
     H    -1.2180263014    1.5526842876    0.0885777363
     H     0.1715200925    1.0447409852   -0.6224974545
     N    -0.7684529914   -0.4105754811    0.3533277343
     H    -0.7899460057   -0.2299050022    1.3524869137
     H    -1.5892298902   -0.9511307891    0.1126848130
     N     2.2737370437   -0.3538533184    0.3157971214
     H     1.3541656507   -0.8375980092    0.2117147865
8
-1.6710029073351902e+02 frame 17   xyz file generated by TeraChem
     N    -0.7865149140    0.7791634571   -0.4198750691
     H    -1.2312384423    1.5483279016    0.0695517794
     H     0.1723215999    1.0471212347   -0.6165248675
     N    -0.7638415006   -0.4067141523    0.3637634504
     H    -0.7806897304   -0.2141154984    1.3608069059
     H    -1.5830329164   -0.9533859409    0.1325272908
     N     2.2763529846   -0.3607286823    0.3142155357
     H     1.3500103258   -0.8323533312    0.2097403289
8
-1.6710038711552826e+02 frame 18   xyz file generated by TeraChem
     N    -0.7738894176    0.7652950727   -0.4279888078
     H    -1.2530224203    1.5383884047    0.0216388394
     H     0.1852866255    1.0495961855   -0.5927223103
     N    -0.7534874644   -0.3960593544    0.3933240037
     H    -0.7794803794   -0.1728815650    1.3837630683
     H    -1.5637196522   -0.9587504342    0.1708812737
     N     2.2827349325   -0.3783593919    0.2968081470
     H     1.3378477425   -0.8189212558    0.2173733922
8
-1.6710052051438893e+02 frame 19   xyz file generated by TeraChem
     N    -0.7440739879    0.7472883742   -0.4334825088
     H    -1.2646830853    1.5254408906   -0.0421964676
     H     0.2164519237    1.0491930066   -0.5486772736
     N    -0.7448877553   -0.3798450326    0.4371084115
     H    -0.8127422755   -0.1160193620    1.4152939791
     H    -1.5365046597   -0.9644810738    0.2060827867
     N     2.2907919279   -0.4027681388    0.2564342726
     H     1.3211451243   -0.8005108085    0.2435419905
8
-1.6710065107203715e+02 frame 20   xyz file generated by TeraChem
     N    -0.7065201818    0.7354387925   -0.4296573538
     H    -1.2582102756    1.5182748186   -0.0950721534
     H     0.2554148841    1.0469451874   -0.4967190553
     N    -0.7438996919   -0.3627672481    0.4774549484
     H    -0.8760948846   -0.0689444234    1.4399639751
     H    -1.5112577657   -0.9673213916    0.2179413164
     N     2.2922301735   -0.4207380239    0.2052393100
     H     1.3120614316   -0.7892159709    0.2814400339
8
-1.6710075072827857e+02 frame 21   xyz file generated by TeraChem
     N    -0.6757726523    0.7353332589   -0.4186687842
     H    -1.2422549287    1.5212739713   -0.1194238150
     H     0.2875981486    1.0453215440   -0.4549375878
     N    -0.7497000074   -0.3509207172    0.4997286521
     H    -0.9445322200   -0.0467101757    1.4479183328
     H    -1.4959363402   -0.9655258354    0.2037230203
     N     2.2846131734   -0.4240668198    0.1595945897
     H     1.3163499949   -0.7920783572    0.3196802133
8
-1.6710077436764863e+02 frame 22   xyz file generated by TeraChem
     N    -0.6726584067    0.7408657723   -0.4131680126
     H    -1.2415137467    1.5266039779   -0.1185091623
     H     0.2918944523    1.0487785179   -0.4488333483
     N    -0.7537956772   -0.3474765621    0.5003626410
     H    -0.9631095750   -0.0473024046    1.4470716403
     H    -1.4955017075   -0.9624265545    0.1926997022
     N     2.2801123351   -0.4196989778    0.1507992013
     H     1.3231985841   -0.7998246149    0.3282616562
8
-1.6710077924996574e+02 frame 23   xyz file generated by TeraChem
     N    -0.6706495870    0.7424303375   -0.4115605370
     H    -1.2460793333    1.5269710708   -0.1266608187
     H     0.2932545811    1.0542311242   -0.4423480067
     N    -0.7548015492   -0.3417317851    0.5055615837
     H    -0.9721837568   -0.0386062497    1.4497105037
     H    -1.4915656310   -0.9612482390    0.1949166434
     N     2.2795385626   -0.4212779049    0.1440078627
     H     1.3249957417   -0.8020796612    0.3333870662
8
-1.6710078185164824e+02 frame 24   xyz file generated by TeraChem
     N    -0.6731038356    0.7442476938   -0.4119142545
     H    -1.2539938434    1.5266914651   -0.1323782700
     H     0.2892396837    1.0610422616   -0.4413709962
     N    -0.7544139966   -0.3367272846    0.5084035516
     H    -0.9723815479   -0.0315340869    1.4517451161
     H    -1.4891135617   -0.9594898952    0.1995607765
     N     2.2799564338   -0.4222652978    0.1428435715
     H     1.3265348244   -0.8047896062    0.3338136007
8
-1.6710078189786978e+02 frame 25   xyz file generated by TeraChem
     N    -0.6750694586    0.7450807477   -0.4126418443
     H    -1.2590148570    1.5262663665   -0.1357785505
     H     0.2861267305    1.0653578350   -0.4414908349
     N    -0.7538735221   -0.3339213515    0.5104209069
     H    -0.9715614981   -0.0268774313    1.4531827803
     H    -1.4875248602   -0.9589042494    0.2037003034
     N     2.2808014075   -0.4233767946    0.1430913481
     H     1.3268815228   -0.8058067910    0.3330080191
8
-1.6710078219870508e+02 frame 26   xyz file generated by TeraChem
     N    -0.6763209570    0.7452312784   -0.4131207829
     H    -1.2611704621    1.5258645014   -0.1365288653
     H     0.2844133511    1.0667505122   -0.4417271473
     N    -0.7534658679   -0.3330029043    0.5111957997
     H    -0.9709204267   -0.0249384399    1.4536602307
     H    -1.4870005628   -0.9586210335    0.2055254442
     N     2.2814175304   -0.4240180633    0.1438822874
     H     1.3268565889   -0.8058791573    0.3319484818
8
-1.6710078249210494e+02 frame 27   xyz file generated by TeraChem
     N    -0.6766595769    0.7452433970   -0.4131935509
     H    -1.2617935675    1.5257722046   -0.1368766517
     H     0.2839272152    1.0672364010   -0.4416337543
     N    -0.7534579856   -0.3326827758    0.5118078580
     H    -0.9715304107   -0.0241621905    1.4539865363
     H    -1.4866957006   -0.9587405283    0.2062742289
     N     2.2817850842   -0.4245535615    0.1440439886
     H     1.3267798873   -0.8055741063    0.3315601260
