9
Converged     Job 0: Energy -1.5504935658968770e+02 @ (56.000000)
   C      -0.9758440534    0.3271702400    0.1142149870
   C       0.3787592913   -0.3527172545    0.0495369524
   O       0.2915038413   -1.6884009971   -0.4371669926
   H      -1.6624269231   -0.2641305545    0.7235820090
   H      -0.8897033223    1.3260539033    0.5516501580
   H      -1.4110851085    0.4361128399   -0.8845624266
   H       0.8157599474   -0.4373133941    1.0467393882
   H       1.0706107990    0.2364823427   -0.5660588572
   H      -0.0371876265   -1.6615615692   -1.3384487808
9
Converged     Job 1: Energy -1.5504914392325702e+02 @ (64.000000)
   C      -0.9668776348    0.3348305962    0.1161725541
   C       0.3747670700   -0.3714232504    0.0561995427
   O       0.2720619367   -1.6935275198   -0.4625578901
   H      -1.6380136867   -0.1742705223    0.8112034760
   H      -0.8380007624    1.3671119357    0.4552894826
   H      -1.4430457093    0.3644001656   -0.8690868413
   H       0.8002419634   -0.4820501944    1.0555349677
   H       1.0820330281    0.2173113607   -0.5427136860
   H      -0.0627833083   -1.6406952801   -1.3605517934
9
Converged     Job 2: Energy -1.5504848603948884e+02 @ (72.000000)
   C      -0.9564706511    0.3494000137    0.1069151440
   C       0.3671376702   -0.3940677284    0.0689958643
   O       0.2450407885   -1.7082087926   -0.4659957153
   H      -1.6164854937   -0.0513852141    0.8795884838
   H      -0.7848482452    1.4059258900    0.3359867220
   H      -1.4679366940    0.3005765230   -0.8592800920
   H       0.7722892962   -0.5228365841    1.0742820244
   H       1.0989760113    0.1810472283   -0.5136515095
   H      -0.0773206927   -1.6387744795   -1.3673538176
9
Converged     Job 3: Energy -1.5504744207021395e+02 @ (80.000000)
   C      -0.9584866647    0.3465395104    0.1051088830
   C       0.3633416038   -0.4054882127    0.0826282796
   O       0.2545110784   -1.6999842089   -0.4990563767
   H      -1.5954739171    0.0240459775    0.9318850556
   H      -0.7772365255    1.4170879143    0.2458840483
   H      -1.5011472749    0.2275651921   -0.8371779804
   H       0.7404193015   -0.5685522998    1.0934663897
   H       1.1140859177    0.1816786147   -0.4627778984
   H      -0.0596302209   -1.6012280975   -1.4004733964
9
Converged     Job 4: Energy -1.5504628708402680e+02 @ (88.000000)
   C      -0.9701503407    0.3434415724    0.1022024466
   C       0.3728276790   -0.3776025154    0.0627930746
   O       0.2724989971   -1.7173488418   -0.4114190254
   H      -1.4927184633    0.1833326498    1.0478907621
   H      -0.8251287643    1.4234376542    0.0000730455
   H      -1.6160150477    0.0212783885   -0.7195585760
   H       0.8135829024   -0.4485101330    1.0585451707
   H       1.0747027879    0.1855175163   -0.5660206386
   H      -0.0492278177   -1.6919060450   -1.3150290219
9
Converged     Job 5: Energy -1.5504520066947569e+02 @ (96.000000)
   C      -0.9695696635    0.3547930943    0.0830122721
   C       0.3699248214   -0.3819023435    0.0788579301
   O       0.2689244333   -1.7248072281   -0.3876275559
   H      -1.4553966367    0.3276456560    1.0608280432
   H      -0.8265735544    1.4094756283   -0.1701570050
   H      -1.6505950579   -0.0753529183   -0.6560826908
   H       0.7883086018   -0.4532160052    1.0840452838
   H       1.0928927351    0.1685312592   -0.5367794272
   H      -0.0375411487   -1.7035473293   -1.2966178833
9
Converged     Job 6: Energy -1.5504434486140642e+02 @ (104.000000)
   C      -0.9950742968    0.3313141559    0.0802905859
   C       0.3768952118   -0.3506455835    0.0801551191
   O       0.3304713937   -1.7009427061   -0.3754263543
   H      -1.4171035635    0.4167878939    1.0837953492
   H      -0.9362854041    1.3417581621   -0.3335802722
   H      -1.6940549777   -0.2406636489   -0.5344219681
   H       0.7983026496   -0.4010883514    1.0852906518
   H       1.0791941802    0.2230943413   -0.5373349948
   H       0.0380906253   -1.6979744722   -1.2892963966
9
Converged     Job 7: Energy -1.5504386968666046e+02 @ (112.000000)
   C      -0.9837897908    0.3443535388    0.1010904920
   C       0.3770075416   -0.3619706058    0.0640872086
   O       0.2986249226   -1.7050464063   -0.4083209030
   H      -1.3153316305    0.5457527082    1.1215971853
   H      -0.9612525319    1.2993883104   -0.4302758088
   H      -1.7405321033   -0.2836646756   -0.3753808683
   H       0.8098868106   -0.4394625971    1.0625363845
   H       1.0827757540    0.2088022887   -0.5515454024
   H       0.0130478713   -1.6865178755   -1.3243100008
9
Converged     Job 8: Energy -1.5504394273808163e+02 @ (120.000000)
   C      -0.9822288987    0.3513328645    0.0907595945
   C       0.3801944761   -0.3516382056    0.0578418813
   O       0.2997630395   -1.7063979284   -0.3811578678
   H      -1.2396958267    0.7011224422    1.0924784828
   H      -1.0289329505    1.2002532978   -0.5947754534
   H      -1.7610872627   -0.3603076127   -0.1961487917
   H       0.8159564389   -0.4096989854    1.0566032506
   H       1.0844614611    0.2079872067   -0.5693367667
   H       0.0120122161   -1.7110277640   -1.2967791856
9
Converged     Job 9: Energy -1.5504446721739373e+02 @ (128.000000)
   C      -0.9829724356    0.3462635698    0.0957023078
   C       0.3786127943   -0.3547510437    0.0623484880
   O       0.3053278800   -1.6919201199   -0.4277575786
   H      -1.1929380996    0.7806345555    1.0757034558
   H      -1.0718785581    1.1291642963   -0.6605020655
   H      -1.7672844816   -0.3940200270   -0.0828632241
   H       0.7883461945   -0.4553685492    1.0686607832
   H       1.0980081571    0.2268889006   -0.5263558755
   H       0.0252194843   -1.6652721452   -1.3454505208
9
Converged     Job 10: Energy -1.5504526284171959e+02 @ (136.000000)
   C      -0.9754413909    0.3487797509    0.1100699871
   C       0.3776292820   -0.3610072028    0.0491775380
   O       0.2856394178   -1.6898647288   -0.4593569979
   H      -1.1005992975    0.8862211144    1.0532940612
   H      -1.1272924304    1.0475721119   -0.7156708277
   H      -1.7686737399   -0.4026533187    0.0794158353
   H       0.7912667572   -0.4830658800    1.0516598852
   H       1.0983560600    0.2243299488   -0.5343290995
   H      -0.0004395975   -1.6486959457   -1.3747681877
9
Converged     Job 11: Energy -1.5504632354969183e+02 @ (144.000000)
   C      -0.9672699135    0.3633603430    0.0823408477
   C       0.3808564246   -0.3487799572    0.0369102147
   O       0.2693902238   -1.7151934148   -0.3549306886
   H      -1.0099734995    1.0846112458    0.9018670842
   H      -1.2171595390    0.8631256838   -0.8567272605
   H      -1.7440609664   -0.3782785602    0.2893293443
   H       0.8229025781   -0.3861658009    1.0347068189
   H       1.0856151461    0.1869984170   -0.6107422829
   H      -0.0399362363   -1.7482767248   -1.2630309731
9
Converged     Job 12: Energy -1.5504752566528316e+02 @ (152.000000)
   C      -0.9753986454    0.3452252284    0.0941469759
   C       0.3787123574   -0.3484474027    0.0455662830
   O       0.2883421617   -1.6970717573   -0.4080792941
   H      -0.9910538626    1.1283889679    0.8560362244
   H      -1.2636280360    0.7733414941   -0.8693791752
   H      -1.7358958411   -0.3866200755    0.3806364720
   H       0.8021448120   -0.4229223852    1.0493587575
   H       1.0868335700    0.2223287324   -0.5678895895
   H      -0.0096897880   -1.6928322869   -1.3206706514
9
Converged     Job 13: Energy -1.5504843585934995e+02 @ (160.000000)
   C      -0.9754855285    0.3359779673    0.1000357150
   C       0.3757964464   -0.3579423572    0.0591721937
   O       0.2938573835   -1.6828790640   -0.4578393682
   H      -0.9635221106    1.1760286186    0.7994093702
   H      -1.2836781731    0.6992957382   -0.8840776493
   H      -1.7314931252   -0.3698128435    0.4550587882
   H       0.7714858598   -0.4778045189    1.0697774235
   H       1.0993202672    0.2364168068   -0.5130151215
   H      -0.0059139990   -1.6379008905   -1.3687934827
9
Converged     Job 14: Energy -1.5504905685941941e+02 @ (168.000000)
   C      -0.9759697203    0.3342195447    0.0946799305
   C       0.3779001375   -0.3505942469    0.0510219630
   O       0.2906469414   -1.6968575765   -0.4076545966
   H      -0.9182912062    1.2796743627    0.6420803201
   H      -1.3565405787    0.5425241709   -0.9095518708
   H      -1.6931799068   -0.3048480591    0.6154003300
   H       0.8046060544   -0.4189846753    1.0540617757
   H       1.0788957991    0.2249461459   -0.5670572070
   H      -0.0276999301   -1.6887098759   -1.3132639434
9
Converged     Job 15: Energy -1.5504935625199911e+02 @ (176.000000)
   C      -0.9763801575    0.3262467071    0.1121459742
   C       0.3799392730   -0.3503609207    0.0474159659
   O       0.2954232114   -1.6891972733   -0.4312267263
   H      -0.8921947380    1.3248942034    0.5507433379
   H      -1.4143549138    0.4330585572   -0.8855335503
   H      -1.6595633409   -0.2650915938    0.7255264745
   H       0.8202227758   -0.4270334005    1.0438580102
   H       1.0686118362    0.2373607014   -0.5733518163
   H      -0.0413368145   -1.6685112461   -1.3298602763
9
Converged     Job 16: Energy -1.5504918470724533e+02 @ (184.000000)
   C      -0.9673550752    0.3344710725    0.1211124750
   C       0.3764631768   -0.3671777075    0.0558850009
   O       0.2730301248   -1.6935821906   -0.4515249062
   H      -0.8452247265    1.3712394122    0.4474928638
   H      -1.4397214022    0.3592537577   -0.8669880688
   H      -1.6419527872   -0.1858202951    0.8038697556
   H       0.8114133539   -0.4688766768    1.0522086093
   H       1.0765037984    0.2201142388   -0.5527646601
   H      -0.0627899616   -1.6482662550   -1.3495739886
9
Converged     Job 17: Energy -1.5504857217650732e+02 @ (192.000000)
   C      -0.9568036443    0.3464625007    0.1194386073
   C       0.3708835721   -0.3889913708    0.0727909792
   O       0.2518767804   -1.6996448849   -0.4701142712
   H      -0.8014064326    1.4070180540    0.3374467206
   H      -1.4521929621    0.2995377279   -0.8569210351
   H      -1.6320699114   -0.0880050257    0.8591460828
   H       0.7816076853   -0.5234474647    1.0751705487
   H       1.0968228466    0.1943649248   -0.5089265006
   H      -0.0783604241   -1.6259472261   -1.3683155783
9
Converged     Job 18: Energy -1.5504757765051045e+02 @ (200.000000)
   C      -0.9655287403    0.3422007841    0.1061144015
   C       0.3731748596   -0.3789415338    0.0839441194
   O       0.2771703261   -1.7011369477   -0.4350369294
   H      -0.8262995030    1.4254239790    0.1637433111
   H      -1.5025445059    0.1571916817   -0.8312567040
   H      -1.6035016159    0.0079487043    0.9265081136
   H       0.7846014470   -0.4860951012    1.0892160647
   H       1.0928958936    0.2020069834   -0.5077573826
   H      -0.0496114435   -1.6472578372   -1.3357594421
9
Converged     Job 19: Energy -1.5504645228040715e+02 @ (208.000000)
   C      -0.9658731484    0.3505563859    0.0997162007
   C       0.3747113131   -0.3744908209    0.0807300092
   O       0.2747537992   -1.7127409083   -0.3966788074
   H      -0.8308606956    1.4290998912   -0.0193040769
   H      -1.5710412144    0.0278721425   -0.7549473821
   H      -1.5403102002    0.1481105481    1.0053844962
   H       0.8029219089   -0.4498179329    1.0817763475
   H       1.0864502199    0.1876678891   -0.5379133683
   H      -0.0503964198   -1.6849231795   -1.2990471209
9
Converged     Job 20: Energy -1.5504535972687427e+02 @ (216.000000)
   C      -0.9682938962    0.3607743058    0.0784365386
   C       0.3758509459   -0.3663848082    0.0808915885
   O       0.2767316194   -1.7246317940   -0.3382464347
   H      -0.8513263158    1.4043121620   -0.2252401815
   H      -1.6330529091   -0.1041582775   -0.6570511985
   H      -1.4743933701    0.3178150049    1.0444566414
   H       0.8105501104   -0.4007394729    1.0813659159
   H       1.0863306946    0.1695006428   -0.5617511341
   H      -0.0420345644   -1.7351659622   -1.2431409335
9
Converged     Job 21: Energy -1.5504450334628308e+02 @ (224.000000)
   C      -0.9907904131    0.3371808495    0.0826497396
   C       0.3795616792   -0.3462756751    0.0833403016
   O       0.3294970707   -1.6986242119   -0.3648064353
   H      -0.9383985043    1.3475893157   -0.3305249476
   H      -1.6727773822   -0.2309015749   -0.5566375886
   H      -1.4428493889    0.3795534102    1.0753113616
   H       0.8050968464   -0.3907570396    1.0871471679
   H       1.0798687567    0.2237260782   -0.5399751123
   H       0.0311615425   -1.7001718030   -1.2767773973
9
Converged     Job 22: Energy -1.5504391636306298e+02 @ (232.000000)
   C      -0.9867278488    0.3423039219    0.0973400556
   C       0.3778609707   -0.3566084763    0.0707394198
   O       0.3100132260   -1.7007173427   -0.4000801786
   H      -0.9638769831    1.3027751879   -0.4237239811
   H      -1.7257168875   -0.2837309075   -0.4096414463
   H      -1.3467044797    0.5138482265    1.1134385034
   H       0.8067302714   -0.4285283129    1.0713562466
   H       1.0830656107    0.2167994626   -0.5432268822
   H       0.0257239546   -1.6848345938   -1.3164738030
9
Converged     Job 23: Energy -1.5504387582938557e+02 @ (240.000000)
   C      -0.9849479487    0.3472844843    0.0930814077
   C       0.3786276932   -0.3538013449    0.0569663715
   O       0.3000160783   -1.7076567019   -0.3853976896
   H      -1.0158885552    1.2229967257   -0.5593496615
   H      -1.7643000628   -0.3489212684   -0.2268802486
   H      -1.2480846368    0.6757349460    1.1007177197
   H       0.8169015971   -0.4126096757    1.0544735533
   H       1.0801898203    0.2080996578   -0.5712321203
   H       0.0178657369   -1.7098445845   -1.3026601438
9
Converged     Job 24: Energy -1.5504434596537533e+02 @ (248.000000)
   C      -0.9864842621    0.3426692968    0.0908338979
   C       0.3768497296   -0.3563030073    0.0593028577
   O       0.3032868493   -1.7013963269   -0.4097716804
   H      -1.0576388298    1.1453823660   -0.6468994368
   H      -1.7781303684   -0.3861470273   -0.0960854636
   H      -1.1856230198    0.7871853360    1.0690756686
   H       0.7945640386   -0.4403281194    1.0639169887
   H       1.0905004940    0.2183948390   -0.5429653070
   H       0.0230489977   -1.6882030888   -1.3276815378
9
Converged     Job 25: Energy -1.5504516636689721e+02 @ (256.000000)
   C      -0.9788240569    0.3431880525    0.1080477200
   C       0.3749008459   -0.3662776651    0.0452893484
   O       0.2813546704   -1.7010160389   -0.4482387473
   H      -1.1090136530    1.0661602591   -0.7011936602
   H      -1.7852143141   -0.3920262781    0.0790706256
   H      -1.0784286737    0.9035144921    1.0418222059
   H       0.7962952256   -0.4776345267    1.0458430573
   H       1.0901064662    0.2150491849   -0.5488202241
   H      -0.0107966781   -1.6696841759   -1.3621012435
9
Converged     Job 26: Energy -1.5504621843281751e+02 @ (264.000000)
   C      -0.9781745267    0.3448293725    0.0876516466
   C       0.3743221855   -0.3607896705    0.0490556943
   O       0.2794872671   -1.7144536502   -0.3901729399
   H      -1.1669974263    0.9241695403   -0.8207511726
   H      -1.7772053253   -0.3835890955    0.2366797139
   H      -1.0149052720    1.0600056646    0.9142634091
   H       0.7974806152   -0.4304590289    1.0531581638
   H       1.0865189098    0.2004990516   -0.5679175102
   H      -0.0201484988   -1.7189484472   -1.3022523427
9
Converged     Job 27: Energy -1.5504741435909534e+02 @ (272.000000)
   C      -0.9832608326    0.3319340494    0.0969180265
   C       0.3750247149   -0.3543556794    0.0495967314
   O       0.2962004433   -1.7001652620   -0.4147498302
   H      -1.2363661737    0.8088606772   -0.8545158427
   H      -1.7590349069   -0.3894569156    0.3612820508
   H      -0.9849941026    1.1242641300    0.8508785113
   H       0.7956391383   -0.4352179750    1.0540895486
   H       1.0804895505    0.2267630023   -0.5569367977
   H      -0.0033182578   -1.6913694323   -1.3268455318
9
Converged     Job 28: Energy -1.5504837944670902e+02 @ (280.000000)
   C      -0.9814807425    0.3273764552    0.1003585757
   C       0.3747445974   -0.3567647941    0.0566097295
   O       0.2996812345   -1.6905080387   -0.4394811542
   H      -1.2799464913    0.7033935329   -0.8825693147
   H      -1.7413015836   -0.3675288791    0.4650775551
   H      -0.9546455218    1.1877695318    0.7753717401
   H       0.7826033747   -0.4581822603    1.0645479897
   H       1.0863382698    0.2367908122   -0.5309680186
   H      -0.0056171133   -1.6611063567   -1.3492302852
9
Converged     Job 29: Energy -1.5504906962640641e+02 @ (288.000000)
   C      -0.9783082564    0.3289675840    0.0968875837
   C       0.3766070622   -0.3534194022    0.0536376700
   O       0.2937252824   -1.6988131494   -0.4082857039
   H      -1.3461189344    0.5507528749   -0.9096499512
   H      -1.7026030441   -0.3021054472    0.6159439505
   H      -0.9115630769    1.2831654404    0.6288269215
   H       0.8029940519   -0.4236718357    1.0567022951
   H       1.0759477099    0.2261815919   -0.5624651355
   H      -0.0303070645   -1.6898248172   -1.3118792058
9
Converged     Job 30: Energy -1.5504935735676537e+02 @ (296.000000)
   C      -0.9764598009    0.3256934588    0.1137157309
   C       0.3799503039   -0.3504381906    0.0463480137
   O       0.2950099200   -1.6900778513   -0.4299662013
   H      -1.4162813536    0.4306578656   -0.8834241004
   H      -1.6583838011   -0.2625842594    0.7310897105
   H      -0.8895120105    1.3270620859    0.5456754728
   H       0.8234682208   -0.4250295178    1.0415249181
   H       1.0662504329    0.2370176935   -0.5773358854
   H      -0.0436688375   -1.6710730679   -1.3279095756
9
Converged     Job 31: Energy -1.5504915984313698e+02 @ (304.000000)
   C      -0.9665855651    0.3360640867    0.1192217730
   C       0.3775274668   -0.3655196876    0.0554733336
   O       0.2749290946   -1.6884694776   -0.4605978992
   H      -1.4485629812    0.3487221096   -0.8640714378
   H      -1.6354646342   -0.1914102162    0.8031657105
   H      -0.8526489386    1.3688490937    0.4596410066
   H       0.8073165373   -0.4734469758    1.0533098903
   H       1.0813748610    0.2238492318   -0.5468356558
   H      -0.0575113303   -1.6374217190   -1.3595868926
9
Converged     Job 32: Energy -1.5504847815842135e+02 @ (312.000000)
   C      -0.9522171176    0.3547767135    0.1132866497
   C       0.3713541467   -0.3893558930    0.0705722359
   O       0.2449844357   -1.6962966702   -0.4795183834
   H      -1.4695480622    0.2832166994   -0.8492032648
   H      -1.6173396609   -0.0841367371    0.8614183434
   H      -0.8021687970    1.4107383865    0.3524513440
   H       0.7736803803   -0.5316284759    1.0751596494
   H       1.1068624264    0.1896468585   -0.5036861140
   H      -0.0752403524   -1.6157574003   -1.3807532490
9
Converged     Job 33: Energy -1.5504744565948417e+02 @ (320.000000)
   C      -0.9665678468    0.3447429295    0.1036076483
   C       0.3781404464   -0.3664008040    0.0647977884
   O       0.2793067468   -1.6986288345   -0.4282892135
   H      -1.5556867322    0.1007929755   -0.7864903326
   H      -1.5563001382    0.0155579703    0.9632741916
   H      -0.8477313603    1.4295094580    0.1611561916
   H       0.8103466905   -0.4507112346    1.0634468403
   H       1.0833878210    0.2074111637   -0.5509340227
   H      -0.0445236251   -1.6611175396   -1.3308479129
9
Converged     Job 34: Energy -1.5504632115244092e+02 @ (328.000000)
   C      -0.9718940751    0.3435832174    0.1023343184
   C       0.3793934981   -0.3625856353    0.0631189732
   O       0.2910152813   -1.6983040230   -0.4229446553
   H      -1.6140931136   -0.0161021299   -0.7078229582
   H      -1.5045915963    0.1214058873    1.0308240383
   H      -0.8665389676    1.4276483639    0.0188160819
   H       0.8170505356   -0.4390623292    1.0598261500
   H       1.0796060832    0.2117661022   -0.5576224971
   H      -0.0295702800   -1.6671971140   -1.3268110734
9
Converged     Job 35: Energy -1.5504528534353338e+02 @ (336.000000)
   C      -0.9688972073    0.3601669272    0.0753214036
   C       0.3755374709   -0.3672632689    0.0761993900
   O       0.2768577708   -1.7174304929   -0.3691408472
   H      -1.6494417493   -0.1142430379   -0.6376779037
   H      -1.4623292599    0.2970465611    1.0486904461
   H      -0.8570867948    1.4157075910   -0.1823377595
   H       0.8009878768   -0.4201350673    1.0796237089
   H       1.0922826017    0.1775805285   -0.5518599365
   H      -0.0275237581   -1.7103110790   -1.2791000268
9
Converged     Job 36: Energy -1.5504443518518860e+02 @ (344.000000)
   C      -0.9900428302    0.3386595617    0.0750259448
   C       0.3779216226   -0.3504610241    0.0838492124
   O       0.3275381460   -1.6959672268   -0.3839972322
   H      -1.6822628069   -0.2336472546   -0.5481728803
   H      -1.4366013772    0.3745255338    1.0716469225
   H      -0.9328280420    1.3593435748   -0.3098071544
   H       0.7890677735   -0.4117945641    1.0925721180
   H       1.0892365013    0.2242779088   -0.5225439050
   H       0.0383405253   -1.6838295471   -1.2988415761
9
Converged     Job 37: Energy -1.5504389518421092e+02 @ (352.000000)
   C      -0.9819549697    0.3480920678    0.0955629513
   C       0.3773750235   -0.3609304484    0.0652075356
   O       0.2969997078   -1.7061224281   -0.4007984211
   H      -1.7358287509   -0.2805681337   -0.3852078681
   H      -1.3246858141    0.5321310132    1.1159434028
   H      -0.9576140433    1.3078925229   -0.4262281826
   H       0.8088128544   -0.4335899059    1.0646385114
   H       1.0852583687    0.2052731002   -0.5523647616
   H       0.0120054845   -1.6910909507   -1.3170233895
9
Converged     Job 38: Energy -1.5504387677859282e+02 @ (360.000000)
   C      -0.9835427139    0.3484784005    0.0948391497
   C       0.3790578890   -0.3545280635    0.0592878958
   O       0.2994022960   -1.7079742485   -0.3837394175
   H      -1.7610853238   -0.3454155675   -0.2350208506
   H      -1.2515518338    0.6791430785    1.1000053393
   H      -1.0129842497    1.2187077566   -0.5652810593
   H       0.8164576130   -0.4143883214    1.0571871912
   H       1.0819172052    0.2068160722   -0.5679148351
   H       0.0126945674   -1.7097640192   -1.2996342770
9
Converged     Job 39: Energy -1.5504432844376680e+02 @ (368.000000)
   C      -0.9869974912    0.3412133092    0.0993079125
   C       0.3777303345   -0.3550348862    0.0651010236
   O       0.3083587802   -1.6954680419   -0.4167857524
   H      -1.7704713759   -0.3869467634   -0.1244437150
   H      -1.2053636051    0.7743525738    1.0774315309
   H      -1.0575310883    1.1386408328   -0.6448810828
   H       0.7934797753   -0.4470260311    1.0698441135
   H       1.0915101893    0.2259147994   -0.5308482672
   H       0.0296503280   -1.6745635306   -1.3350002190
9
Converged     Job 40: Energy -1.5504508864126572e+02 @ (376.000000)
   C      -0.9792583344    0.3441903930    0.1151688787
   C       0.3766741666   -0.3619297680    0.0533467037
   O       0.2860409069   -1.6962945422   -0.4412567698
   H      -1.7774958811   -0.3974983036    0.0383340710
   H      -1.1070915809    0.8973905197    1.0480875427
   H      -1.1092534365    1.0510791864   -0.7092296567
   H       0.7989391598   -0.4718091877    1.0537974943
   H       1.0905586285    0.2204448086   -0.5411089090
   H       0.0012560512   -1.6645114158   -1.3574144456
9
Converged     Job 41: Energy -1.5504619212215241e+02 @ (384.000000)
   C      -0.9723992693    0.3540580402    0.0973047922
   C       0.3790353914   -0.3538544048    0.0516180278
   O       0.2733225845   -1.7129109399   -0.3666774126
   H      -1.7649689328   -0.3875254504    0.2194429404
   H      -1.0256481951    1.0852837643    0.9056630521
   H      -1.1804276733    0.8799263902   -0.8406968812
   H       0.8146871490   -0.4095742799    1.0518192495
   H       1.0860770777    0.1958532130   -0.5810087571
   H      -0.0293594679   -1.7301821379   -1.2777300701
9
Converged     Job 42: Energy -1.5504742843408377e+02 @ (392.000000)
   C      -0.9769228020    0.3409093131    0.1071927001
   C       0.3785563110   -0.3509400175    0.0531941184
   O       0.2873196500   -1.6967489826   -0.4077530042
   H      -1.7505961255   -0.3943899703    0.3409322680
   H      -0.9953075964    1.1393286429    0.8518575548
   H      -1.2414534362    0.7775388796   -0.8613976134
   H       0.8056852883   -0.4315699777    1.0550743623
   H       1.0837601296    0.2244122401   -0.5590229507
   H      -0.0107217875   -1.6874733046   -1.3203442694
9
Converged     Job 43: Energy -1.5504838673747017e+02 @ (400.000000)
   C      -0.9764166840    0.3340568584    0.1062883506
   C       0.3757067338   -0.3589632584    0.0671146597
   O       0.2937160360   -1.6824475358   -0.4530811459
   H      -1.7435902684   -0.3770007597    0.4229787215
   H      -0.9700776212    1.1856354133    0.7907443240
   H      -1.2651706278    0.6997017689   -0.8843143093
   H       0.7711063178   -0.4819929319    1.0775564845
   H       1.0991843896    0.2372707626   -0.5029588829
   H      -0.0041378694   -1.6352067329   -1.3645936031
9
Converged     Job 44: Energy -1.5504903407532234e+02 @ (408.000000)
   C      -0.9724392821    0.3375617901    0.0988151099
   C       0.3762671652   -0.3580482176    0.0624312984
   O       0.2816210560   -1.6964648953   -0.4167763751
   H      -1.7119223305   -0.3080019062    0.5781956327
   H      -0.9170728015    1.2826420430    0.6460912377
   H      -1.3262625507    0.5622180415   -0.9127300023
   H       0.7914935032   -0.4460739535    1.0687263432
   H       1.0882767774    0.2200139572   -0.5403575481
   H      -0.0296449569   -1.6728050594   -1.3246546454
9
Converged     Job 45: Energy -1.5504935785223802e+02 @ (416.000000)
   C      -0.9762619830    0.3252974943    0.1159357515
   C       0.3800695605   -0.3506364424    0.0459103136
   O       0.2948187565   -1.6882274381   -0.4358070958
   H      -1.6579708173   -0.2662632764    0.7305444540
   H      -0.8905698388    1.3250563527    0.5518770274
   H      -1.4166622677    0.4319042554   -0.8807276907
   H       0.8230251796   -0.4297889755    1.0409757196
   H       1.0668927120    0.2391382165   -0.5749793422
   H      -0.0430226420   -1.6654528800   -1.3339863856
