%chk=Z:\home\alongd\Code\sync\runs\ARC\CJ_rates\building_blocks\B_N_d\TS_guesses\TS3\2.chk
# hf/3-21g geom=connectivity

Title Card Required

0 2
 O                 -1.21705424    0.55038759    0.00000000
 O                 -1.59485639    3.83998233    0.55242647
 O                 -1.71721812    4.01929092    1.83271496
 N                  0.14364467    2.38299039    1.19866779
 C                 -0.06948924    3.38007059   -4.78637300
 C                 -0.27360324    3.17572559    0.21562400
 C                  1.41004076    3.75620359   -4.86375500
 C                 -0.95336424    4.62043559   -4.91633500
 C                  0.37461290    3.00924507    2.48337416
 C                 -1.80239624   -0.73038441   -0.02997400
 C                 -0.38052024    2.60681959   -3.52828200
 C                 -0.47551124    2.48450959   -1.09765800
 C                 -0.96280624    1.17241459   -1.18039100
 C                 -0.20186124    3.17269259   -2.26676600
 C                 -0.86136024    1.30823659   -3.58096300
 C                 -1.15441424    0.58974459   -2.42678100
 H                 -0.29236524    2.71897159   -5.63152700
 H                  0.39870095    4.02923583    0.11385532
 H                  2.04827976    2.87351759   -4.79446300
 H                  1.68593376    4.42956559   -4.04854400
 H                  1.63238576    4.26782459   -5.80313600
 H                 -2.01230824    4.35819759   -4.88509000
 H                 -0.76267524    5.32457459   -4.10279600
 H                 -0.75609324    5.14144059   -5.85616400
 H                  1.08233580    3.83140911    2.36302486
 H                 -0.53084225    3.41720285    2.94727104
 H                  0.81787847    2.27909622    3.16124243
 H                 -1.96413924   -1.01347741    1.00761100
 H                 -1.14276024   -1.46281741   -0.50535500
 H                 -2.76302324   -0.71383841   -0.55251900
 H                 -1.06642890    2.11743578    1.52054155
 H                 -1.01694224    0.83532359   -4.54530400
 H                 -1.53045324   -0.42077841   -2.51226300
 H                  0.16440376    4.19076059   -2.18520000

 1 10 1.0 13 1.0
 2 3 1.0 6 0.5
 3 31 0.5
 4 6 1.5 9 1.0 31 0.5
 5 7 1.0 8 1.0 11 1.0 17 1.0
 6 12 1.0 18 1.0
 7 19 1.0 20 1.0 21 1.0
 8 22 1.0 23 1.0 24 1.0
 9 25 1.0 26 1.0 27 1.0
 10 28 1.0 29 1.0 30 1.0
 11 14 1.5 15 2.0
 12 13 1.5 14 2.0
 13 16 1.5
 14 34 1.0
 15 16 1.5 32 1.0
 16 33 1.0
 17
 18
 19
 20
 21
 22
 23
 24
 25
 26
 27
 28
 29
 30
 31
 32
 33
 34

