%chk=check.chk
%mem=102400MB
%nprocshared=16
#p opt=calcfc wb97xd guess=mix def2tzvp iop(2/9=2000) scf=xqc

s0_fuel

0 1
 C                 -2.59083231    0.12070142   -0.00312814
 C                 -1.14265864   -0.37244342   -0.17976669
 O                 -1.26341471   -1.44282652   -0.83035762
 O                  0.15546790   -0.38309968    1.48079644
 C                  0.80938320   -1.57091449    1.93509893
 C                 -0.21733749   -2.49241315    2.61941235
 N                 -0.81558661   -1.79337351    3.76585972
 H                 -3.15540247   -0.61473510    0.53100074
 H                 -3.03282567    0.28083283   -0.96432521
 H                 -2.59046738    1.03864614    0.54666943
 H                  1.24484345   -2.07973926    1.10061002
 H                  1.57658709   -1.31061219    2.63405593
 H                  0.27195578   -3.38119766    2.95934498
 H                 -0.98454138   -2.75271545    1.92045534
 H                 -1.27287004   -0.96273378    3.44816568
 H                 -1.48228836   -2.39174926    4.21021909
 O                  0.34656878    0.99345528   -0.80705837
 H                  0.87939542    0.82528423   -1.58770827
 H                  0.80323015    0.57186891    0.54651973

